<?xml version="1.0" encoding="UTF-8"?>

<!-- generated on Fri Jun 19 13:19:18 2015 by SUMO netconvert Version 0.22.0
<?xml version="1.0" encoding="UTF-8"?>

<configuration xmlns:xsi="http://www.w3.org/2001/XMLSchema-instance" xsi:noNamespaceSchemaLocation="http://sumo.dlr.de/xsd/netconvertConfiguration.xsd">

    <input>
        <node-files value="multilane.nod.xml"/>
        <edge-files value="multilane.edg.xml"/>
        <type-files value="multilane.typ.xml"/>
    </input>

    <output>
        <output-file value="multilane.net.xml"/>
    </output>

    <processing>
        <no-turnarounds value="true"/>
    </processing>

</configuration>
-->


<net version="0.13" xmlns:xsi="http://www.w3.org/2001/XMLSchema-instance" xsi:noNamespaceSchemaLocation="http://sumo.dlr.de/xsd/net_file.xsd">

    <location netOffset="0.00,-100.00" convBoundary="0.00,100.00,1000.00,110.00" origBoundary="0.00,100.00,1000.00,110.00" projParameter="!"/>

    <edge id="R55N" from="R55N_20" to="R55N_10" priority="1" type="a">
        <lane id="R55N_0" index="0" speed="33.33" length="1000.00" shape="1000.00,4.95 0.00,4.95"/>
        <lane id="R55N_1" index="1" speed="33.33" length="1000.00" shape="1000.00,1.65 0.00,1.65"/>
    </edge>
    <edge id="R55S" from="R55S_10" to="R55S_20" priority="1" type="a">
        <lane id="R55S_0" index="0" speed="33.33" length="1000.00" shape="0.00,-4.95 1000.00,-4.95"/>
        <lane id="R55S_1" index="1" speed="33.33" length="1000.00" shape="0.00,-1.65 1000.00,-1.65"/>
    </edge>
    
</net>


